* NGSPICE file created from tt_um_MichaelBell_tinyQV.ext - technology: sky130A

.subckt sky130_fd_sc_hd__decap_3 VPWR VGND VPB VNB
X0 VPWR VGND VPWR VPB sky130_fd_pr__pfet_01v8_hvt ad=0.2262 pd=2.26 as=0.4524 ps=4.52 w=0.87 l=0.59
X1 VGND VPWR VGND VNB sky130_fd_pr__nfet_01v8 ad=0.143 pd=1.62 as=0.286 ps=3.24 w=0.55 l=0.59
.ends

.subckt sky130_fd_sc_hd__dfxtp_1 Q CLK D VPB VNB VPWR VGND
X0 Q a_1059_315# VGND VNB sky130_fd_pr__nfet_01v8 ad=0.169 pd=1.82 as=0.08775 ps=0.92 w=0.65 l=0.15
X1 a_891_413# a_193_47# a_634_159# VNB sky130_fd_pr__nfet_01v8 ad=0.0684 pd=0.74 as=0.0989 ps=0.995 w=0.36 l=0.15
X2 a_561_413# a_27_47# a_466_413# VPB sky130_fd_pr__pfet_01v8_hvt ad=0.07665 pd=0.785 as=0.06825 ps=0.745 w=0.42 l=0.15
X3 VPWR CLK a_27_47# VPB sky130_fd_pr__pfet_01v8_hvt ad=0.0864 pd=0.91 as=0.1664 ps=1.8 w=0.64 l=0.15
X4 Q a_1059_315# VPWR VPB sky130_fd_pr__pfet_01v8_hvt ad=0.26 pd=2.52 as=0.135 ps=1.27 w=1 l=0.15
X5 a_381_47# D VPWR VPB sky130_fd_pr__pfet_01v8_hvt ad=0.05775 pd=0.695 as=0.1092 ps=1.36 w=0.42 l=0.15
X6 VGND a_634_159# a_592_47# VNB sky130_fd_pr__nfet_01v8 ad=0.12095 pd=1.085 as=0.0696 ps=0.765 w=0.42 l=0.15
X7 VPWR a_891_413# a_1059_315# VPB sky130_fd_pr__pfet_01v8_hvt ad=0.135 pd=1.27 as=0.27 ps=2.54 w=1 l=0.15
X8 a_466_413# a_193_47# a_381_47# VPB sky130_fd_pr__pfet_01v8_hvt ad=0.06825 pd=0.745 as=0.05775 ps=0.695 w=0.42 l=0.15
X9 VPWR a_634_159# a_561_413# VPB sky130_fd_pr__pfet_01v8_hvt ad=0.178875 pd=1.26 as=0.07665 ps=0.785 w=0.42 l=0.15
X10 a_634_159# a_466_413# VGND VNB sky130_fd_pr__nfet_01v8 ad=0.0989 pd=0.995 as=0.12095 ps=1.085 w=0.64 l=0.15
X11 a_634_159# a_466_413# VPWR VPB sky130_fd_pr__pfet_01v8_hvt ad=0.1095 pd=1.075 as=0.178875 ps=1.26 w=0.75 l=0.15
X12 a_975_413# a_193_47# a_891_413# VPB sky130_fd_pr__pfet_01v8_hvt ad=0.0882 pd=0.84 as=0.0567 ps=0.69 w=0.42 l=0.15
X13 VGND a_1059_315# a_1017_47# VNB sky130_fd_pr__nfet_01v8 ad=0.1092 pd=1.36 as=0.066 ps=0.745 w=0.42 l=0.15
X14 a_193_47# a_27_47# VGND VNB sky130_fd_pr__nfet_01v8 ad=0.1092 pd=1.36 as=0.0567 ps=0.69 w=0.42 l=0.15
X15 a_891_413# a_27_47# a_634_159# VPB sky130_fd_pr__pfet_01v8_hvt ad=0.0567 pd=0.69 as=0.1095 ps=1.075 w=0.42 l=0.15
X16 a_592_47# a_193_47# a_466_413# VNB sky130_fd_pr__nfet_01v8 ad=0.0696 pd=0.765 as=0.0621 ps=0.705 w=0.36 l=0.15
X17 a_1017_47# a_27_47# a_891_413# VNB sky130_fd_pr__nfet_01v8 ad=0.066 pd=0.745 as=0.0684 ps=0.74 w=0.36 l=0.15
X18 VPWR a_1059_315# a_975_413# VPB sky130_fd_pr__pfet_01v8_hvt ad=0.1113 pd=1.37 as=0.0882 ps=0.84 w=0.42 l=0.15
X19 a_466_413# a_27_47# a_381_47# VNB sky130_fd_pr__nfet_01v8 ad=0.0621 pd=0.705 as=0.0813 ps=0.83 w=0.36 l=0.15
X20 a_193_47# a_27_47# VPWR VPB sky130_fd_pr__pfet_01v8_hvt ad=0.1664 pd=1.8 as=0.0864 ps=0.91 w=0.64 l=0.15
X21 VGND a_891_413# a_1059_315# VNB sky130_fd_pr__nfet_01v8 ad=0.08775 pd=0.92 as=0.169 ps=1.82 w=0.65 l=0.15
X22 a_381_47# D VGND VNB sky130_fd_pr__nfet_01v8 ad=0.0813 pd=0.83 as=0.1092 ps=1.36 w=0.42 l=0.15
X23 VGND CLK a_27_47# VNB sky130_fd_pr__nfet_01v8 ad=0.0567 pd=0.69 as=0.1092 ps=1.36 w=0.42 l=0.15
.ends

.subckt sky130_fd_sc_hd__nor2_2 VPB VNB VGND VPWR B Y A
X0 Y B a_27_297# VPB sky130_fd_pr__pfet_01v8_hvt ad=0.135 pd=1.27 as=0.135 ps=1.27 w=1 l=0.15
X1 Y B VGND VNB sky130_fd_pr__nfet_01v8 ad=0.08775 pd=0.92 as=0.08775 ps=0.92 w=0.65 l=0.15
X2 a_27_297# A VPWR VPB sky130_fd_pr__pfet_01v8_hvt ad=0.135 pd=1.27 as=0.135 ps=1.27 w=1 l=0.15
X3 VGND A Y VNB sky130_fd_pr__nfet_01v8 ad=0.08775 pd=0.92 as=0.08775 ps=0.92 w=0.65 l=0.15
X4 Y A VGND VNB sky130_fd_pr__nfet_01v8 ad=0.08775 pd=0.92 as=0.182 ps=1.86 w=0.65 l=0.15
X5 VGND B Y VNB sky130_fd_pr__nfet_01v8 ad=0.169 pd=1.82 as=0.08775 ps=0.92 w=0.65 l=0.15
X6 VPWR A a_27_297# VPB sky130_fd_pr__pfet_01v8_hvt ad=0.135 pd=1.27 as=0.28 ps=2.56 w=1 l=0.15
X7 a_27_297# B Y VPB sky130_fd_pr__pfet_01v8_hvt ad=0.26 pd=2.52 as=0.135 ps=1.27 w=1 l=0.15
.ends

.subckt sky130_fd_sc_hd__or2_1 VPB VNB VGND VPWR X A B
X0 VGND A a_68_297# VNB sky130_fd_pr__nfet_01v8 ad=0.10025 pd=0.985 as=0.0567 ps=0.69 w=0.42 l=0.15
X1 a_68_297# B VGND VNB sky130_fd_pr__nfet_01v8 ad=0.0567 pd=0.69 as=0.1092 ps=1.36 w=0.42 l=0.15
X2 X a_68_297# VGND VNB sky130_fd_pr__nfet_01v8 ad=0.169 pd=1.82 as=0.10025 ps=0.985 w=0.65 l=0.15
X3 VPWR A a_150_297# VPB sky130_fd_pr__pfet_01v8_hvt ad=0.14575 pd=1.335 as=0.0441 ps=0.63 w=0.42 l=0.15
X4 X a_68_297# VPWR VPB sky130_fd_pr__pfet_01v8_hvt ad=0.34 pd=2.68 as=0.14575 ps=1.335 w=1 l=0.15
X5 a_150_297# B a_68_297# VPB sky130_fd_pr__pfet_01v8_hvt ad=0.0441 pd=0.63 as=0.1092 ps=1.36 w=0.42 l=0.15
.ends

.subckt sky130_fd_sc_hd__nand2_1 VPB VNB VGND VPWR A Y B
X0 VPWR A Y VPB sky130_fd_pr__pfet_01v8_hvt ad=0.26 pd=2.52 as=0.135 ps=1.27 w=1 l=0.15
X1 Y A a_113_47# VNB sky130_fd_pr__nfet_01v8 ad=0.169 pd=1.82 as=0.08775 ps=0.92 w=0.65 l=0.15
X2 a_113_47# B VGND VNB sky130_fd_pr__nfet_01v8 ad=0.08775 pd=0.92 as=0.169 ps=1.82 w=0.65 l=0.15
X3 Y B VPWR VPB sky130_fd_pr__pfet_01v8_hvt ad=0.135 pd=1.27 as=0.26 ps=2.52 w=1 l=0.15
.ends

.subckt sky130_fd_sc_hd__and2_1 VPWR VGND X B A VPB VNB
X0 VPWR B a_59_75# VPB sky130_fd_pr__pfet_01v8_hvt ad=0.16655 pd=1.39 as=0.0567 ps=0.69 w=0.42 l=0.15
X1 X a_59_75# VPWR VPB sky130_fd_pr__pfet_01v8_hvt ad=0.475 pd=2.95 as=0.16655 ps=1.39 w=1 l=0.15
X2 VGND B a_145_75# VNB sky130_fd_pr__nfet_01v8 ad=0.1118 pd=1.04 as=0.0567 ps=0.69 w=0.42 l=0.15
X3 a_59_75# A VPWR VPB sky130_fd_pr__pfet_01v8_hvt ad=0.0567 pd=0.69 as=0.1176 ps=1.4 w=0.42 l=0.15
X4 X a_59_75# VGND VNB sky130_fd_pr__nfet_01v8 ad=0.182 pd=1.86 as=0.1118 ps=1.04 w=0.65 l=0.15
X5 a_145_75# A a_59_75# VNB sky130_fd_pr__nfet_01v8 ad=0.0567 pd=0.69 as=0.1176 ps=1.4 w=0.42 l=0.15
.ends

.subckt sky130_fd_sc_hd__and3_1 VGND VPWR X B A C VPB VNB
X0 VPWR A a_27_47# VPB sky130_fd_pr__pfet_01v8_hvt ad=0.0567 pd=0.69 as=0.1092 ps=1.36 w=0.42 l=0.15
X1 VPWR C a_27_47# VPB sky130_fd_pr__pfet_01v8_hvt ad=0.142225 pd=1.335 as=0.06615 ps=0.735 w=0.42 l=0.15
X2 a_181_47# B a_109_47# VNB sky130_fd_pr__nfet_01v8 ad=0.0441 pd=0.63 as=0.0441 ps=0.63 w=0.42 l=0.15
X3 VGND C a_181_47# VNB sky130_fd_pr__nfet_01v8 ad=0.13165 pd=1.14 as=0.0441 ps=0.63 w=0.42 l=0.15
X4 a_27_47# B VPWR VPB sky130_fd_pr__pfet_01v8_hvt ad=0.06615 pd=0.735 as=0.0567 ps=0.69 w=0.42 l=0.15
X5 X a_27_47# VPWR VPB sky130_fd_pr__pfet_01v8_hvt ad=0.26 pd=2.52 as=0.142225 ps=1.335 w=1 l=0.15
X6 X a_27_47# VGND VNB sky130_fd_pr__nfet_01v8 ad=0.169 pd=1.82 as=0.13165 ps=1.14 w=0.65 l=0.15
X7 a_109_47# A a_27_47# VNB sky130_fd_pr__nfet_01v8 ad=0.0441 pd=0.63 as=0.1092 ps=1.36 w=0.42 l=0.15
.ends

.subckt sky130_fd_sc_hd__clkbuf_1 VGND VPWR X A VPB VNB
X0 VPWR a_75_212# X VPB sky130_fd_pr__pfet_01v8_hvt ad=0.11455 pd=1.08 as=0.2054 ps=2.1 w=0.79 l=0.15
X1 a_75_212# A VGND VNB sky130_fd_pr__nfet_01v8 ad=0.1352 pd=1.56 as=0.0754 ps=0.81 w=0.52 l=0.15
X2 a_75_212# A VPWR VPB sky130_fd_pr__pfet_01v8_hvt ad=0.2054 pd=2.1 as=0.11455 ps=1.08 w=0.79 l=0.15
X3 VGND a_75_212# X VNB sky130_fd_pr__nfet_01v8 ad=0.0754 pd=0.81 as=0.1352 ps=1.56 w=0.52 l=0.15
.ends

.subckt sky130_fd_sc_hd__or3b_1 VGND VPWR VPB VNB B C_N A X
X0 a_109_93# C_N VGND VNB sky130_fd_pr__nfet_01v8 ad=0.1092 pd=1.36 as=0.1092 ps=1.36 w=0.42 l=0.15
X1 a_215_53# B VGND VNB sky130_fd_pr__nfet_01v8 ad=0.0567 pd=0.69 as=0.0567 ps=0.69 w=0.42 l=0.15
X2 VGND a_109_93# a_215_53# VNB sky130_fd_pr__nfet_01v8 ad=0.0567 pd=0.69 as=0.1092 ps=1.36 w=0.42 l=0.15
X3 VGND A a_215_53# VNB sky130_fd_pr__nfet_01v8 ad=0.10025 pd=0.985 as=0.0567 ps=0.69 w=0.42 l=0.15
X4 VPWR A a_369_297# VPB sky130_fd_pr__pfet_01v8_hvt ad=0.14825 pd=1.34 as=0.06825 ps=0.745 w=0.42 l=0.15
X5 a_369_297# B a_297_297# VPB sky130_fd_pr__pfet_01v8_hvt ad=0.06825 pd=0.745 as=0.0441 ps=0.63 w=0.42 l=0.15
X6 X a_215_53# VPWR VPB sky130_fd_pr__pfet_01v8_hvt ad=0.275 pd=2.55 as=0.14825 ps=1.34 w=1 l=0.15
X7 a_297_297# a_109_93# a_215_53# VPB sky130_fd_pr__pfet_01v8_hvt ad=0.0441 pd=0.63 as=0.1092 ps=1.36 w=0.42 l=0.15
X8 a_109_93# C_N VPWR VPB sky130_fd_pr__pfet_01v8_hvt ad=0.1092 pd=1.36 as=0.1092 ps=1.36 w=0.42 l=0.15
X9 X a_215_53# VGND VNB sky130_fd_pr__nfet_01v8 ad=0.17875 pd=1.85 as=0.10025 ps=0.985 w=0.65 l=0.15
.ends

.subckt sky130_fd_sc_hd__dlygate4sd3_1 X A VPB VNB VGND VPWR
X0 VPWR A a_49_47# VPB sky130_fd_pr__pfet_01v8_hvt ad=0.0567 pd=0.69 as=0.1092 ps=1.36 w=0.42 l=0.15
X1 VGND a_285_47# a_391_47# VNB sky130_fd_pr__nfet_01v8 ad=0.097 pd=0.975 as=0.1092 ps=1.36 w=0.42 l=0.5
X2 X a_391_47# VPWR VPB sky130_fd_pr__pfet_01v8_hvt ad=0.26 pd=2.52 as=0.14075 ps=1.325 w=1 l=0.15
X3 VGND A a_49_47# VNB sky130_fd_pr__nfet_01v8 ad=0.0567 pd=0.69 as=0.1092 ps=1.36 w=0.42 l=0.15
X4 VPWR a_285_47# a_391_47# VPB sky130_fd_pr__pfet_01v8_hvt ad=0.14075 pd=1.325 as=0.1092 ps=1.36 w=0.42 l=0.5
X5 a_285_47# a_49_47# VGND VNB sky130_fd_pr__nfet_01v8 ad=0.1092 pd=1.36 as=0.0567 ps=0.69 w=0.42 l=0.5
X6 a_285_47# a_49_47# VPWR VPB sky130_fd_pr__pfet_01v8_hvt ad=0.1092 pd=1.36 as=0.0567 ps=0.69 w=0.42 l=0.5
X7 X a_391_47# VGND VNB sky130_fd_pr__nfet_01v8 ad=0.169 pd=1.82 as=0.097 ps=0.975 w=0.65 l=0.15
.ends

.subckt sky130_fd_sc_hd__a21oi_1 VPWR VGND VPB VNB A2 A1 B1 Y
X0 a_199_47# A1 Y VNB sky130_fd_pr__nfet_01v8 ad=0.095875 pd=0.945 as=0.091 ps=0.93 w=0.65 l=0.15
X1 a_113_297# A2 VPWR VPB sky130_fd_pr__pfet_01v8_hvt ad=0.265 pd=2.53 as=0.1475 ps=1.295 w=1 l=0.15
X2 Y B1 VGND VNB sky130_fd_pr__nfet_01v8 ad=0.091 pd=0.93 as=0.17225 ps=1.83 w=0.65 l=0.15
X3 VPWR A1 a_113_297# VPB sky130_fd_pr__pfet_01v8_hvt ad=0.1475 pd=1.295 as=0.14 ps=1.28 w=1 l=0.15
X4 a_113_297# B1 Y VPB sky130_fd_pr__pfet_01v8_hvt ad=0.14 pd=1.28 as=0.265 ps=2.53 w=1 l=0.15
X5 VGND A2 a_199_47# VNB sky130_fd_pr__nfet_01v8 ad=0.17225 pd=1.83 as=0.095875 ps=0.945 w=0.65 l=0.15
.ends

.subckt sky130_fd_sc_hd__decap_6 VPWR VGND VPB VNB
X0 VPWR VGND VPWR VPB sky130_fd_pr__pfet_01v8_hvt ad=0.2262 pd=2.26 as=0.4524 ps=4.52 w=0.87 l=1.97
X1 VGND VPWR VGND VNB sky130_fd_pr__nfet_01v8 ad=0.143 pd=1.62 as=0.286 ps=3.24 w=0.55 l=1.97
.ends

.subckt sky130_fd_sc_hd__decap_4 VGND VPWR VPB VNB
X0 VPWR VGND VPWR VPB sky130_fd_pr__pfet_01v8_hvt ad=0.2262 pd=2.26 as=0.4524 ps=4.52 w=0.87 l=1.05
X1 VGND VPWR VGND VNB sky130_fd_pr__nfet_01v8 ad=0.143 pd=1.62 as=0.286 ps=3.24 w=0.55 l=1.05
.ends

.subckt sky130_fd_sc_hd__dlygate4sd1_1 VPWR VGND VPB VNB X A
X0 X a_299_93# VGND VNB sky130_fd_pr__nfet_01v8 ad=0.169 pd=1.82 as=0.10025 ps=0.985 w=0.65 l=0.15
X1 VPWR a_193_47# a_299_93# VPB sky130_fd_pr__pfet_01v8_hvt ad=0.14075 pd=1.325 as=0.1092 ps=1.36 w=0.42 l=0.15
X2 VPWR A a_27_47# VPB sky130_fd_pr__pfet_01v8_hvt ad=0.0567 pd=0.69 as=0.1092 ps=1.36 w=0.42 l=0.15
X3 a_193_47# a_27_47# VGND VNB sky130_fd_pr__nfet_01v8 ad=0.1092 pd=1.36 as=0.0567 ps=0.69 w=0.42 l=0.15
X4 a_193_47# a_27_47# VPWR VPB sky130_fd_pr__pfet_01v8_hvt ad=0.1092 pd=1.36 as=0.0567 ps=0.69 w=0.42 l=0.15
X5 VGND a_193_47# a_299_93# VNB sky130_fd_pr__nfet_01v8 ad=0.10025 pd=0.985 as=0.1092 ps=1.36 w=0.42 l=0.15
X6 X a_299_93# VPWR VPB sky130_fd_pr__pfet_01v8_hvt ad=0.26 pd=2.52 as=0.14075 ps=1.325 w=1 l=0.15
X7 VGND A a_27_47# VNB sky130_fd_pr__nfet_01v8 ad=0.0567 pd=0.69 as=0.1092 ps=1.36 w=0.42 l=0.15
.ends

.subckt sky130_fd_sc_hd__decap_8 VPWR VGND VPB VNB
X0 VPWR VGND VPWR VPB sky130_fd_pr__pfet_01v8_hvt ad=0.2262 pd=2.26 as=0.4524 ps=4.52 w=0.87 l=2.89
X1 VGND VPWR VGND VNB sky130_fd_pr__nfet_01v8 ad=0.143 pd=1.62 as=0.286 ps=3.24 w=0.55 l=2.89
.ends

.subckt sky130_fd_sc_hd__a21o_1 VPWR VGND VPB VNB A2 A1 B1 X
X0 a_81_21# B1 VGND VNB sky130_fd_pr__nfet_01v8 ad=0.089375 pd=0.925 as=0.25675 ps=1.44 w=0.65 l=0.15
X1 a_299_297# B1 a_81_21# VPB sky130_fd_pr__pfet_01v8_hvt ad=0.1375 pd=1.275 as=0.26 ps=2.52 w=1 l=0.15
X2 VPWR a_81_21# X VPB sky130_fd_pr__pfet_01v8_hvt ad=0.26 pd=2.52 as=0.26 ps=2.52 w=1 l=0.15
X3 VPWR A1 a_299_297# VPB sky130_fd_pr__pfet_01v8_hvt ad=0.14 pd=1.28 as=0.1375 ps=1.275 w=1 l=0.15
X4 VGND a_81_21# X VNB sky130_fd_pr__nfet_01v8 ad=0.25675 pd=1.44 as=0.169 ps=1.82 w=0.65 l=0.15
X5 VGND A2 a_384_47# VNB sky130_fd_pr__nfet_01v8 ad=0.17225 pd=1.83 as=0.091 ps=0.93 w=0.65 l=0.15
X6 a_299_297# A2 VPWR VPB sky130_fd_pr__pfet_01v8_hvt ad=0.265 pd=2.53 as=0.14 ps=1.28 w=1 l=0.15
X7 a_384_47# A1 a_81_21# VNB sky130_fd_pr__nfet_01v8 ad=0.091 pd=0.93 as=0.089375 ps=0.925 w=0.65 l=0.15
.ends

.subckt sky130_fd_sc_hd__mux2_1 VGND VPWR VPB VNB X A1 S A0
X0 VPWR a_505_21# a_535_374# VPB sky130_fd_pr__pfet_01v8_hvt ad=0.0693 pd=0.75 as=0.0441 ps=0.63 w=0.42 l=0.15
X1 a_505_21# S VPWR VPB sky130_fd_pr__pfet_01v8_hvt ad=0.1176 pd=1.4 as=0.0693 ps=0.75 w=0.42 l=0.15
X2 a_218_374# S VPWR VPB sky130_fd_pr__pfet_01v8_hvt ad=0.07665 pd=0.785 as=0.15835 ps=1.395 w=0.42 l=0.15
X3 VGND a_505_21# a_439_47# VNB sky130_fd_pr__nfet_01v8 ad=0.1449 pd=1.11 as=0.0693 ps=0.75 w=0.42 l=0.15
X4 a_76_199# A0 a_218_374# VPB sky130_fd_pr__pfet_01v8_hvt ad=0.1932 pd=1.34 as=0.07665 ps=0.785 w=0.42 l=0.15
X5 a_505_21# S VGND VNB sky130_fd_pr__nfet_01v8 ad=0.1092 pd=1.36 as=0.1449 ps=1.11 w=0.42 l=0.15
X6 a_439_47# A0 a_76_199# VNB sky130_fd_pr__nfet_01v8 ad=0.0693 pd=0.75 as=0.09975 ps=0.895 w=0.42 l=0.15
X7 a_535_374# A1 a_76_199# VPB sky130_fd_pr__pfet_01v8_hvt ad=0.0441 pd=0.63 as=0.1932 ps=1.34 w=0.42 l=0.15
X8 a_76_199# A1 a_218_47# VNB sky130_fd_pr__nfet_01v8 ad=0.09975 pd=0.895 as=0.0693 ps=0.75 w=0.42 l=0.15
X9 a_218_47# S VGND VNB sky130_fd_pr__nfet_01v8 ad=0.0693 pd=0.75 as=0.11285 ps=1.045 w=0.42 l=0.15
X10 VPWR a_76_199# X VPB sky130_fd_pr__pfet_01v8_hvt ad=0.15835 pd=1.395 as=0.26 ps=2.52 w=1 l=0.15
X11 VGND a_76_199# X VNB sky130_fd_pr__nfet_01v8 ad=0.11285 pd=1.045 as=0.169 ps=1.82 w=0.65 l=0.15
.ends

.subckt sky130_fd_sc_hd__mux2_2 VGND VPWR VPB VNB S A1 A0 X
X0 VPWR S a_591_369# VPB sky130_fd_pr__pfet_01v8_hvt ad=0.0864 pd=0.91 as=0.0672 ps=0.85 w=0.64 l=0.15
X1 a_591_369# A0 a_79_21# VPB sky130_fd_pr__pfet_01v8_hvt ad=0.0672 pd=0.85 as=0.1312 ps=1.05 w=0.64 l=0.15
X2 VPWR a_79_21# X VPB sky130_fd_pr__pfet_01v8_hvt ad=0.1778 pd=1.415 as=0.135 ps=1.27 w=1 l=0.15
X3 a_79_21# A1 a_306_369# VPB sky130_fd_pr__pfet_01v8_hvt ad=0.1312 pd=1.05 as=0.2288 ps=1.355 w=0.64 l=0.15
X4 VGND a_79_21# X VNB sky130_fd_pr__nfet_01v8 ad=0.097 pd=0.975 as=0.08775 ps=0.92 w=0.65 l=0.15
X5 VGND S a_578_47# VNB sky130_fd_pr__nfet_01v8 ad=0.0567 pd=0.69 as=0.05775 ps=0.695 w=0.42 l=0.15
X6 a_306_369# a_257_199# VPWR VPB sky130_fd_pr__pfet_01v8_hvt ad=0.2288 pd=1.355 as=0.1778 ps=1.415 w=0.64 l=0.15
X7 a_79_21# A0 a_288_47# VNB sky130_fd_pr__nfet_01v8 ad=0.17325 pd=1.245 as=0.06825 ps=0.745 w=0.42 l=0.15
X8 a_288_47# a_257_199# VGND VNB sky130_fd_pr__nfet_01v8 ad=0.06825 pd=0.745 as=0.097 ps=0.975 w=0.42 l=0.15
X9 a_257_199# S VGND VNB sky130_fd_pr__nfet_01v8 ad=0.1134 pd=1.38 as=0.0567 ps=0.69 w=0.42 l=0.15
X10 a_578_47# A1 a_79_21# VNB sky130_fd_pr__nfet_01v8 ad=0.05775 pd=0.695 as=0.17325 ps=1.245 w=0.42 l=0.15
X11 X a_79_21# VPWR VPB sky130_fd_pr__pfet_01v8_hvt ad=0.135 pd=1.27 as=0.26 ps=2.52 w=1 l=0.15
X12 a_257_199# S VPWR VPB sky130_fd_pr__pfet_01v8_hvt ad=0.1728 pd=1.82 as=0.0864 ps=0.91 w=0.64 l=0.15
X13 X a_79_21# VGND VNB sky130_fd_pr__nfet_01v8 ad=0.08775 pd=0.92 as=0.169 ps=1.82 w=0.65 l=0.15
.ends

.subckt sky130_fd_sc_hd__xor2_1 VNB VPB VPWR VGND A X B
X0 X a_35_297# a_285_297# VPB sky130_fd_pr__pfet_01v8_hvt ad=0.3 pd=2.6 as=0.26 ps=2.52 w=1 l=0.15
X1 X B a_285_47# VNB sky130_fd_pr__nfet_01v8 ad=0.25025 pd=1.42 as=0.08775 ps=0.92 w=0.65 l=0.15
X2 a_35_297# B VGND VNB sky130_fd_pr__nfet_01v8 ad=0.08775 pd=0.92 as=0.169 ps=1.82 w=0.65 l=0.15
X3 a_117_297# B a_35_297# VPB sky130_fd_pr__pfet_01v8_hvt ad=0.135 pd=1.27 as=0.26 ps=2.52 w=1 l=0.15
X4 VPWR B a_285_297# VPB sky130_fd_pr__pfet_01v8_hvt ad=0.26 pd=2.52 as=0.135 ps=1.27 w=1 l=0.15
X5 VGND A a_35_297# VNB sky130_fd_pr__nfet_01v8 ad=0.08775 pd=0.92 as=0.08775 ps=0.92 w=0.65 l=0.15
X6 VGND a_35_297# X VNB sky130_fd_pr__nfet_01v8 ad=0.208 pd=1.94 as=0.25025 ps=1.42 w=0.65 l=0.15
X7 a_285_297# A VPWR VPB sky130_fd_pr__pfet_01v8_hvt ad=0.135 pd=1.27 as=0.135 ps=1.27 w=1 l=0.15
X8 VPWR A a_117_297# VPB sky130_fd_pr__pfet_01v8_hvt ad=0.135 pd=1.27 as=0.135 ps=1.27 w=1 l=0.15
X9 a_285_47# A VGND VNB sky130_fd_pr__nfet_01v8 ad=0.08775 pd=0.92 as=0.08775 ps=0.92 w=0.65 l=0.15
.ends

.subckt sky130_fd_sc_hd__a211o_1 VNB VPB VGND VPWR X A2 B1 A1 C1
X0 VPWR a_80_21# X VPB sky130_fd_pr__pfet_01v8_hvt ad=0.265 pd=2.53 as=0.265 ps=2.53 w=1 l=0.15
X1 a_80_21# C1 a_472_297# VPB sky130_fd_pr__pfet_01v8_hvt ad=0.265 pd=2.53 as=0.155 ps=1.31 w=1 l=0.15
X2 VPWR A2 a_217_297# VPB sky130_fd_pr__pfet_01v8_hvt ad=0.14 pd=1.28 as=0.265 ps=2.53 w=1 l=0.15
X3 VGND B1 a_80_21# VNB sky130_fd_pr__nfet_01v8 ad=0.10075 pd=0.96 as=0.091 ps=0.93 w=0.65 l=0.15
X4 VGND a_80_21# X VNB sky130_fd_pr__nfet_01v8 ad=0.26 pd=1.45 as=0.17225 ps=1.83 w=0.65 l=0.15
X5 a_300_47# A2 VGND VNB sky130_fd_pr__nfet_01v8 ad=0.091 pd=0.93 as=0.26 ps=1.45 w=0.65 l=0.15
X6 a_217_297# A1 VPWR VPB sky130_fd_pr__pfet_01v8_hvt ad=0.14 pd=1.28 as=0.14 ps=1.28 w=1 l=0.15
X7 a_80_21# A1 a_300_47# VNB sky130_fd_pr__nfet_01v8 ad=0.091 pd=0.93 as=0.091 ps=0.93 w=0.65 l=0.15
X8 a_472_297# B1 a_217_297# VPB sky130_fd_pr__pfet_01v8_hvt ad=0.155 pd=1.31 as=0.14 ps=1.28 w=1 l=0.15
X9 a_80_21# C1 VGND VNB sky130_fd_pr__nfet_01v8 ad=0.17225 pd=1.83 as=0.10075 ps=0.96 w=0.65 l=0.15
.ends

.subckt sky130_fd_sc_hd__o21ai_1 VGND VPWR A2 B1 Y A1 VPB VNB
X0 Y A2 a_109_297# VPB sky130_fd_pr__pfet_01v8_hvt ad=0.174 pd=1.39 as=0.105 ps=1.21 w=1 l=0.15
X1 VPWR B1 Y VPB sky130_fd_pr__pfet_01v8_hvt ad=0.182 pd=1.92 as=0.174 ps=1.39 w=0.7 l=0.15
X2 a_27_47# A2 VGND VNB sky130_fd_pr__nfet_01v8 ad=0.08775 pd=0.92 as=0.10725 ps=0.98 w=0.65 l=0.15
X3 Y B1 a_27_47# VNB sky130_fd_pr__nfet_01v8 ad=0.169 pd=1.82 as=0.08775 ps=0.92 w=0.65 l=0.15
X4 a_109_297# A1 VPWR VPB sky130_fd_pr__pfet_01v8_hvt ad=0.105 pd=1.21 as=0.26 ps=2.52 w=1 l=0.15
X5 VGND A1 a_27_47# VNB sky130_fd_pr__nfet_01v8 ad=0.10725 pd=0.98 as=0.169 ps=1.82 w=0.65 l=0.15
.ends

.subckt sky130_fd_sc_hd__buf_6 VPWR VGND X A VPB VNB
X0 VPWR a_161_47# X VPB sky130_fd_pr__pfet_01v8_hvt ad=0.26 pd=2.52 as=0.135 ps=1.27 w=1 l=0.15
X1 a_161_47# A VGND VNB sky130_fd_pr__nfet_01v8 ad=0.08775 pd=0.92 as=0.169 ps=1.82 w=0.65 l=0.15
X2 X a_161_47# VPWR VPB sky130_fd_pr__pfet_01v8_hvt ad=0.135 pd=1.27 as=0.135 ps=1.27 w=1 l=0.15
X3 VPWR a_161_47# X VPB sky130_fd_pr__pfet_01v8_hvt ad=0.135 pd=1.27 as=0.135 ps=1.27 w=1 l=0.15
X4 VGND A a_161_47# VNB sky130_fd_pr__nfet_01v8 ad=0.08775 pd=0.92 as=0.08775 ps=0.92 w=0.65 l=0.15
X5 X a_161_47# VPWR VPB sky130_fd_pr__pfet_01v8_hvt ad=0.135 pd=1.27 as=0.135 ps=1.27 w=1 l=0.15
X6 VGND a_161_47# X VNB sky130_fd_pr__nfet_01v8 ad=0.08775 pd=0.92 as=0.08775 ps=0.92 w=0.65 l=0.15
X7 VGND a_161_47# X VNB sky130_fd_pr__nfet_01v8 ad=0.08775 pd=0.92 as=0.08775 ps=0.92 w=0.65 l=0.15
X8 VPWR a_161_47# X VPB sky130_fd_pr__pfet_01v8_hvt ad=0.135 pd=1.27 as=0.135 ps=1.27 w=1 l=0.15
X9 X a_161_47# VPWR VPB sky130_fd_pr__pfet_01v8_hvt ad=0.135 pd=1.27 as=0.135 ps=1.27 w=1 l=0.15
X10 X a_161_47# VGND VNB sky130_fd_pr__nfet_01v8 ad=0.08775 pd=0.92 as=0.08775 ps=0.92 w=0.65 l=0.15
X11 X a_161_47# VGND VNB sky130_fd_pr__nfet_01v8 ad=0.08775 pd=0.92 as=0.08775 ps=0.92 w=0.65 l=0.15
X12 X a_161_47# VGND VNB sky130_fd_pr__nfet_01v8 ad=0.08775 pd=0.92 as=0.08775 ps=0.92 w=0.65 l=0.15
X13 VPWR A a_161_47# VPB sky130_fd_pr__pfet_01v8_hvt ad=0.135 pd=1.27 as=0.135 ps=1.27 w=1 l=0.15
X14 VGND a_161_47# X VNB sky130_fd_pr__nfet_01v8 ad=0.169 pd=1.82 as=0.08775 ps=0.92 w=0.65 l=0.15
X15 a_161_47# A VPWR VPB sky130_fd_pr__pfet_01v8_hvt ad=0.135 pd=1.27 as=0.26 ps=2.52 w=1 l=0.15
.ends

.subckt sky130_fd_sc_hd__nand2_4 VPB VNB VGND VPWR B Y A
X0 a_27_47# A Y VNB sky130_fd_pr__nfet_01v8 ad=0.08775 pd=0.92 as=0.08775 ps=0.92 w=0.65 l=0.15
X1 a_27_47# A Y VNB sky130_fd_pr__nfet_01v8 ad=0.169 pd=1.82 as=0.08775 ps=0.92 w=0.65 l=0.15
X2 Y A VPWR VPB sky130_fd_pr__pfet_01v8_hvt ad=0.135 pd=1.27 as=0.135 ps=1.27 w=1 l=0.15
X3 VPWR B Y VPB sky130_fd_pr__pfet_01v8_hvt ad=0.135 pd=1.27 as=0.135 ps=1.27 w=1 l=0.15
X4 Y B VPWR VPB sky130_fd_pr__pfet_01v8_hvt ad=0.135 pd=1.27 as=0.135 ps=1.27 w=1 l=0.15
X5 VPWR B Y VPB sky130_fd_pr__pfet_01v8_hvt ad=0.135 pd=1.27 as=0.135 ps=1.27 w=1 l=0.15
X6 a_27_47# B VGND VNB sky130_fd_pr__nfet_01v8 ad=0.08775 pd=0.92 as=0.08775 ps=0.92 w=0.65 l=0.15
X7 a_27_47# B VGND VNB sky130_fd_pr__nfet_01v8 ad=0.08775 pd=0.92 as=0.08775 ps=0.92 w=0.65 l=0.15
X8 VPWR A Y VPB sky130_fd_pr__pfet_01v8_hvt ad=0.26 pd=2.52 as=0.135 ps=1.27 w=1 l=0.15
X9 VGND B a_27_47# VNB sky130_fd_pr__nfet_01v8 ad=0.08775 pd=0.92 as=0.08775 ps=0.92 w=0.65 l=0.15
X10 Y A a_27_47# VNB sky130_fd_pr__nfet_01v8 ad=0.08775 pd=0.92 as=0.08775 ps=0.92 w=0.65 l=0.15
X11 Y A VPWR VPB sky130_fd_pr__pfet_01v8_hvt ad=0.135 pd=1.27 as=0.135 ps=1.27 w=1 l=0.15
X12 Y A a_27_47# VNB sky130_fd_pr__nfet_01v8 ad=0.08775 pd=0.92 as=0.08775 ps=0.92 w=0.65 l=0.15
X13 VPWR A Y VPB sky130_fd_pr__pfet_01v8_hvt ad=0.135 pd=1.27 as=0.135 ps=1.27 w=1 l=0.15
X14 Y B VPWR VPB sky130_fd_pr__pfet_01v8_hvt ad=0.135 pd=1.27 as=0.26 ps=2.52 w=1 l=0.15
X15 VGND B a_27_47# VNB sky130_fd_pr__nfet_01v8 ad=0.08775 pd=0.92 as=0.169 ps=1.82 w=0.65 l=0.15
.ends

.subckt sky130_fd_sc_hd__nand3_4 VNB VPB VGND VPWR C A Y B
X0 a_27_47# B a_445_47# VNB sky130_fd_pr__nfet_01v8 ad=0.08775 pd=0.92 as=0.08775 ps=0.92 w=0.65 l=0.15
X1 a_27_47# B a_445_47# VNB sky130_fd_pr__nfet_01v8 ad=0.169 pd=1.82 as=0.08775 ps=0.92 w=0.65 l=0.15
X2 Y B VPWR VPB sky130_fd_pr__pfet_01v8_hvt ad=0.135 pd=1.27 as=0.135 ps=1.27 w=1 l=0.15
X3 VPWR C Y VPB sky130_fd_pr__pfet_01v8_hvt ad=0.135 pd=1.27 as=0.135 ps=1.27 w=1 l=0.15
X4 Y A a_445_47# VNB sky130_fd_pr__nfet_01v8 ad=0.08775 pd=0.92 as=0.08775 ps=0.92 w=0.65 l=0.15
X5 Y C VPWR VPB sky130_fd_pr__pfet_01v8_hvt ad=0.135 pd=1.27 as=0.135 ps=1.27 w=1 l=0.15
X6 Y A a_445_47# VNB sky130_fd_pr__nfet_01v8 ad=0.08775 pd=0.92 as=0.169 ps=1.82 w=0.65 l=0.15
X7 VPWR C Y VPB sky130_fd_pr__pfet_01v8_hvt ad=0.135 pd=1.27 as=0.135 ps=1.27 w=1 l=0.15
X8 a_27_47# C VGND VNB sky130_fd_pr__nfet_01v8 ad=0.08775 pd=0.92 as=0.08775 ps=0.92 w=0.65 l=0.15
X9 a_27_47# C VGND VNB sky130_fd_pr__nfet_01v8 ad=0.08775 pd=0.92 as=0.08775 ps=0.92 w=0.65 l=0.15
X10 a_445_47# A Y VNB sky130_fd_pr__nfet_01v8 ad=0.1755 pd=1.84 as=0.08775 ps=0.92 w=0.65 l=0.15
X11 VPWR B Y VPB sky130_fd_pr__pfet_01v8_hvt ad=0.26 pd=2.52 as=0.135 ps=1.27 w=1 l=0.15
X12 a_445_47# A Y VNB sky130_fd_pr__nfet_01v8 ad=0.08775 pd=0.92 as=0.08775 ps=0.92 w=0.65 l=0.15
X13 VGND C a_27_47# VNB sky130_fd_pr__nfet_01v8 ad=0.08775 pd=0.92 as=0.08775 ps=0.92 w=0.65 l=0.15
X14 a_445_47# B a_27_47# VNB sky130_fd_pr__nfet_01v8 ad=0.08775 pd=0.92 as=0.08775 ps=0.92 w=0.65 l=0.15
X15 Y B VPWR VPB sky130_fd_pr__pfet_01v8_hvt ad=0.135 pd=1.27 as=0.135 ps=1.27 w=1 l=0.15
X16 VPWR A Y VPB sky130_fd_pr__pfet_01v8_hvt ad=0.27 pd=2.54 as=0.135 ps=1.27 w=1 l=0.15
X17 a_445_47# B a_27_47# VNB sky130_fd_pr__nfet_01v8 ad=0.08775 pd=0.92 as=0.08775 ps=0.92 w=0.65 l=0.15
X18 VPWR B Y VPB sky130_fd_pr__pfet_01v8_hvt ad=0.135 pd=1.27 as=0.135 ps=1.27 w=1 l=0.15
X19 Y A VPWR VPB sky130_fd_pr__pfet_01v8_hvt ad=0.135 pd=1.27 as=0.135 ps=1.27 w=1 l=0.15
X20 VPWR A Y VPB sky130_fd_pr__pfet_01v8_hvt ad=0.135 pd=1.27 as=0.135 ps=1.27 w=1 l=0.15
X21 Y C VPWR VPB sky130_fd_pr__pfet_01v8_hvt ad=0.135 pd=1.27 as=0.26 ps=2.52 w=1 l=0.15
X22 Y A VPWR VPB sky130_fd_pr__pfet_01v8_hvt ad=0.135 pd=1.27 as=0.26 ps=2.52 w=1 l=0.15
X23 VGND C a_27_47# VNB sky130_fd_pr__nfet_01v8 ad=0.08775 pd=0.92 as=0.169 ps=1.82 w=0.65 l=0.15
.ends

.subckt sky130_fd_sc_hd__dfxtp_2 Q CLK D VPB VNB VPWR VGND
X0 Q a_1059_315# VGND VNB sky130_fd_pr__nfet_01v8 ad=0.08775 pd=0.92 as=0.08775 ps=0.92 w=0.65 l=0.15
X1 a_891_413# a_193_47# a_634_159# VNB sky130_fd_pr__nfet_01v8 ad=0.0684 pd=0.74 as=0.0989 ps=0.995 w=0.36 l=0.15
X2 VPWR a_1059_315# Q VPB sky130_fd_pr__pfet_01v8_hvt ad=0.26 pd=2.52 as=0.135 ps=1.27 w=1 l=0.15
X3 a_561_413# a_27_47# a_466_413# VPB sky130_fd_pr__pfet_01v8_hvt ad=0.07665 pd=0.785 as=0.06825 ps=0.745 w=0.42 l=0.15
X4 VPWR CLK a_27_47# VPB sky130_fd_pr__pfet_01v8_hvt ad=0.0864 pd=0.91 as=0.1664 ps=1.8 w=0.64 l=0.15
X5 Q a_1059_315# VPWR VPB sky130_fd_pr__pfet_01v8_hvt ad=0.135 pd=1.27 as=0.135 ps=1.27 w=1 l=0.15
X6 a_381_47# D VPWR VPB sky130_fd_pr__pfet_01v8_hvt ad=0.05775 pd=0.695 as=0.1092 ps=1.36 w=0.42 l=0.15
X7 VGND a_634_159# a_592_47# VNB sky130_fd_pr__nfet_01v8 ad=0.12095 pd=1.085 as=0.0696 ps=0.765 w=0.42 l=0.15
X8 VGND a_1059_315# Q VNB sky130_fd_pr__nfet_01v8 ad=0.169 pd=1.82 as=0.08775 ps=0.92 w=0.65 l=0.15
X9 VPWR a_891_413# a_1059_315# VPB sky130_fd_pr__pfet_01v8_hvt ad=0.135 pd=1.27 as=0.27 ps=2.54 w=1 l=0.15
X10 a_466_413# a_193_47# a_381_47# VPB sky130_fd_pr__pfet_01v8_hvt ad=0.06825 pd=0.745 as=0.05775 ps=0.695 w=0.42 l=0.15
X11 VPWR a_634_159# a_561_413# VPB sky130_fd_pr__pfet_01v8_hvt ad=0.178875 pd=1.26 as=0.07665 ps=0.785 w=0.42 l=0.15
X12 a_634_159# a_466_413# VGND VNB sky130_fd_pr__nfet_01v8 ad=0.0989 pd=0.995 as=0.12095 ps=1.085 w=0.64 l=0.15
X13 a_634_159# a_466_413# VPWR VPB sky130_fd_pr__pfet_01v8_hvt ad=0.1095 pd=1.075 as=0.178875 ps=1.26 w=0.75 l=0.15
X14 a_975_413# a_193_47# a_891_413# VPB sky130_fd_pr__pfet_01v8_hvt ad=0.0882 pd=0.84 as=0.0567 ps=0.69 w=0.42 l=0.15
X15 VGND a_1059_315# a_1017_47# VNB sky130_fd_pr__nfet_01v8 ad=0.1092 pd=1.36 as=0.066 ps=0.745 w=0.42 l=0.15
X16 a_193_47# a_27_47# VGND VNB sky130_fd_pr__nfet_01v8 ad=0.1092 pd=1.36 as=0.0567 ps=0.69 w=0.42 l=0.15
X17 a_891_413# a_27_47# a_634_159# VPB sky130_fd_pr__pfet_01v8_hvt ad=0.0567 pd=0.69 as=0.1095 ps=1.075 w=0.42 l=0.15
X18 a_592_47# a_193_47# a_466_413# VNB sky130_fd_pr__nfet_01v8 ad=0.0696 pd=0.765 as=0.0621 ps=0.705 w=0.36 l=0.15
X19 a_1017_47# a_27_47# a_891_413# VNB sky130_fd_pr__nfet_01v8 ad=0.066 pd=0.745 as=0.0684 ps=0.74 w=0.36 l=0.15
X20 VPWR a_1059_315# a_975_413# VPB sky130_fd_pr__pfet_01v8_hvt ad=0.1113 pd=1.37 as=0.0882 ps=0.84 w=0.42 l=0.15
X21 a_466_413# a_27_47# a_381_47# VNB sky130_fd_pr__nfet_01v8 ad=0.0621 pd=0.705 as=0.0813 ps=0.83 w=0.36 l=0.15
X22 a_193_47# a_27_47# VPWR VPB sky130_fd_pr__pfet_01v8_hvt ad=0.1664 pd=1.8 as=0.0864 ps=0.91 w=0.64 l=0.15
X23 VGND a_891_413# a_1059_315# VNB sky130_fd_pr__nfet_01v8 ad=0.08775 pd=0.92 as=0.169 ps=1.82 w=0.65 l=0.15
X24 a_381_47# D VGND VNB sky130_fd_pr__nfet_01v8 ad=0.0813 pd=0.83 as=0.1092 ps=1.36 w=0.42 l=0.15
X25 VGND CLK a_27_47# VNB sky130_fd_pr__nfet_01v8 ad=0.0567 pd=0.69 as=0.1092 ps=1.36 w=0.42 l=0.15
.ends

.subckt sky130_fd_sc_hd__clkbuf_4 VGND VPWR A X VPB VNB
X0 VPWR A a_27_47# VPB sky130_fd_pr__pfet_01v8_hvt ad=0.165 pd=1.33 as=0.265 ps=2.53 w=1 l=0.15
X1 VGND a_27_47# X VNB sky130_fd_pr__nfet_01v8 ad=0.1218 pd=1.42 as=0.0588 ps=0.7 w=0.42 l=0.15
X2 VGND a_27_47# X VNB sky130_fd_pr__nfet_01v8 ad=0.0588 pd=0.7 as=0.0588 ps=0.7 w=0.42 l=0.15
X3 X a_27_47# VPWR VPB sky130_fd_pr__pfet_01v8_hvt ad=0.14 pd=1.28 as=0.14 ps=1.28 w=1 l=0.15
X4 X a_27_47# VGND VNB sky130_fd_pr__nfet_01v8 ad=0.0588 pd=0.7 as=0.0588 ps=0.7 w=0.42 l=0.15
X5 VGND A a_27_47# VNB sky130_fd_pr__nfet_01v8 ad=0.07035 pd=0.755 as=0.1113 ps=1.37 w=0.42 l=0.15
X6 VPWR a_27_47# X VPB sky130_fd_pr__pfet_01v8_hvt ad=0.3 pd=2.6 as=0.14 ps=1.28 w=1 l=0.15
X7 X a_27_47# VGND VNB sky130_fd_pr__nfet_01v8 ad=0.0588 pd=0.7 as=0.07035 ps=0.755 w=0.42 l=0.15
X8 X a_27_47# VPWR VPB sky130_fd_pr__pfet_01v8_hvt ad=0.14 pd=1.28 as=0.165 ps=1.33 w=1 l=0.15
X9 VPWR a_27_47# X VPB sky130_fd_pr__pfet_01v8_hvt ad=0.14 pd=1.28 as=0.14 ps=1.28 w=1 l=0.15
.ends

.subckt sky130_fd_sc_hd__o211a_1 VNB VPB VGND VPWR X A1 A2 B1 C1
X0 VGND A1 a_215_47# VNB sky130_fd_pr__nfet_01v8 ad=0.105625 pd=0.975 as=0.169 ps=1.82 w=0.65 l=0.15
X1 a_510_47# B1 a_215_47# VNB sky130_fd_pr__nfet_01v8 ad=0.11375 pd=1 as=0.143 ps=1.09 w=0.65 l=0.15
X2 a_79_21# C1 VPWR VPB sky130_fd_pr__pfet_01v8_hvt ad=0.3 pd=2.6 as=0.175 ps=1.35 w=1 l=0.15
X3 VPWR B1 a_79_21# VPB sky130_fd_pr__pfet_01v8_hvt ad=0.175 pd=1.35 as=0.22 ps=1.44 w=1 l=0.15
X4 a_79_21# A2 a_297_297# VPB sky130_fd_pr__pfet_01v8_hvt ad=0.22 pd=1.44 as=0.1625 ps=1.325 w=1 l=0.15
X5 a_297_297# A1 VPWR VPB sky130_fd_pr__pfet_01v8_hvt ad=0.1625 pd=1.325 as=0.26 ps=2.52 w=1 l=0.15
X6 a_79_21# C1 a_510_47# VNB sky130_fd_pr__nfet_01v8 ad=0.195 pd=1.9 as=0.11375 ps=1 w=0.65 l=0.15
X7 VPWR a_79_21# X VPB sky130_fd_pr__pfet_01v8_hvt ad=0.26 pd=2.52 as=0.26 ps=2.52 w=1 l=0.15
X8 VGND a_79_21# X VNB sky130_fd_pr__nfet_01v8 ad=0.169 pd=1.82 as=0.169 ps=1.82 w=0.65 l=0.15
X9 a_215_47# A2 VGND VNB sky130_fd_pr__nfet_01v8 ad=0.143 pd=1.09 as=0.105625 ps=0.975 w=0.65 l=0.15
.ends

.subckt sky130_fd_sc_hd__nor2_1 VPB VNB VGND VPWR A B Y
X0 VPWR A a_109_297# VPB sky130_fd_pr__pfet_01v8_hvt ad=0.26 pd=2.52 as=0.105 ps=1.21 w=1 l=0.15
X1 VGND A Y VNB sky130_fd_pr__nfet_01v8 ad=0.169 pd=1.82 as=0.08775 ps=0.92 w=0.65 l=0.15
X2 a_109_297# B Y VPB sky130_fd_pr__pfet_01v8_hvt ad=0.105 pd=1.21 as=0.26 ps=2.52 w=1 l=0.15
X3 Y B VGND VNB sky130_fd_pr__nfet_01v8 ad=0.08775 pd=0.92 as=0.169 ps=1.82 w=0.65 l=0.15
.ends

.subckt sky130_fd_sc_hd__o211ai_1 VPB VNB VGND VPWR A1 Y C1 B1 A2
X0 a_110_297# A1 VPWR VPB sky130_fd_pr__pfet_01v8_hvt ad=0.105 pd=1.21 as=0.265 ps=2.53 w=1 l=0.15
X1 VGND A1 a_27_47# VNB sky130_fd_pr__nfet_01v8 ad=0.12675 pd=1.04 as=0.17225 ps=1.83 w=0.65 l=0.15
X2 Y A2 a_110_297# VPB sky130_fd_pr__pfet_01v8_hvt ad=0.195 pd=1.39 as=0.105 ps=1.21 w=1 l=0.15
X3 VPWR B1 Y VPB sky130_fd_pr__pfet_01v8_hvt ad=0.195 pd=1.39 as=0.195 ps=1.39 w=1 l=0.15
X4 a_27_47# A2 VGND VNB sky130_fd_pr__nfet_01v8 ad=0.12675 pd=1.04 as=0.12675 ps=1.04 w=0.65 l=0.15
X5 a_326_47# B1 a_27_47# VNB sky130_fd_pr__nfet_01v8 ad=0.06825 pd=0.86 as=0.12675 ps=1.04 w=0.65 l=0.15
X6 Y C1 VPWR VPB sky130_fd_pr__pfet_01v8_hvt ad=0.635 pd=3.27 as=0.195 ps=1.39 w=1 l=0.15
X7 Y C1 a_326_47# VNB sky130_fd_pr__nfet_01v8 ad=0.39325 pd=2.51 as=0.06825 ps=0.86 w=0.65 l=0.15
.ends

.subckt sky130_fd_sc_hd__xnor2_1 VGND VPWR B Y A VPB VNB
X0 a_377_297# A VPWR VPB sky130_fd_pr__pfet_01v8_hvt ad=0.105 pd=1.21 as=0.365 ps=1.73 w=1 l=0.15
X1 a_47_47# B VPWR VPB sky130_fd_pr__pfet_01v8_hvt ad=0.135 pd=1.27 as=0.3 ps=2.6 w=1 l=0.15
X2 a_129_47# B a_47_47# VNB sky130_fd_pr__nfet_01v8 ad=0.06825 pd=0.86 as=0.169 ps=1.82 w=0.65 l=0.15
X3 a_285_47# B VGND VNB sky130_fd_pr__nfet_01v8 ad=0.08775 pd=0.92 as=0.169 ps=1.82 w=0.65 l=0.15